/*--------------------------------*- C++ -*----------------------------------*\
| =========                 |                                                 |
| \\      /  F ield         | OpenFOAM: The Open Source CFD Toolbox           |
|  \\    /   O peration     | Version:  2.3.0                                 |
|   \\  /    A nd           | Web:      www.OpenFOAM.org                      |
|    \\/     M anipulation  |                                                 |
\*---------------------------------------------------------------------------*/
FoamFile
{
    version     2.0;
    format      ascii;
    class       dictionary;
    object      blockMeshDict;
}
// * * * * * * * * * * * * * * * * * * * * * * * * * * * * * * * * * * * * * //

convertToMeters 0.001;

vertices
(
    (-4.0 4.0 0)
    (0 4.0 0)
    (0 4.0 4.0)
    (-4.0 4.0 4.0)
    (-4.0 0 0)
    (0 0 0)
    (0 0 4.0)
    (-4.0 0 4.0)
);

blocks
(
    hex (0 1 2 3 4 5 6 7) (20 20 20) simpleGrading (1 1 1)
);

boundary
(
    walls
    {
        type wall;
        faces
        (
            (1 5 4 0)
        );
    }
    outlet
    {
        type patch;
        faces
        (
            (0 4 7 3)	
            (3 7 6 2)
            (0 3 2 1)
        );
    }
    cyclicA
    {
        type wall;
        faces
        (
            (4 5 6 7)
        );
    }
    cyclicB
    {
        type wall;
        faces
        (
            (2 6 5 1)
        );
    }
);

// ************************************************************************* //
