/*--------------------------------*- C++ -*----------------------------------*\
| =========                 |                                                 |
| \\      /  F ield         | OpenFOAM: The Open Source CFD Toolbox           |
|  \\    /   O peration     | Version:  5                                     |
|   \\  /    A nd           | Web:      www.OpenFOAM.org                      |
|    \\/     M anipulation  |                                                 |
\*---------------------------------------------------------------------------*/
FoamFile
{
    version     2.0;
    format      ascii;
    class       dictionary;
    location    "system";
    object      setFieldsDict;
}
// * * * * * * * * * * * * * * * * * * * * * * * * * * * * * * * * * * * * * //

defaultFieldValues
(
    volScalarFieldValue alpha.water 1
    volScalarFieldValue alpha.air 0
    volVectorFieldValue U (0 0 0)
    volScalarFieldValue p_rgh 1e5
    volScalarFieldValue p 1e5
    volScalarFieldValue T 293.15
);

regions
(
    sphereToCell
    {
        centre (0.0 0.0 3.2e-4);
        radius      3e-5;
        fieldValues
        (
            volScalarFieldValue alpha.water 0
            volScalarFieldValue alpha.air 1
            volVectorFieldValue U (0 0 0)
            volScalarFieldValue p_rgh 5e7
            volScalarFieldValue p 5e7
            volScalarFieldValue T 293.15
        );
    }
);


// ************************************************************************* //
